powerflow/Codes/data/caso_red2.pwf
(ARQUIVO GRAVADO A PARTIR DO PROGRAMA ORGANON)
TITU
ONS * PARPEL 2027-2031 * VERÃO 2027/2028 MÁXIMA DIURNA
DOPC
(Op) E (Op) E (Op) E (Op) E (Op) E (Op) E (Op) E (Op) E (Op) E (Op) E
QLIM L VLIM L CREM L CTAP D STEP L NEWT L RCVG L RMON L FILE L SUBS L
CONT L NOVO L CELO L MFCT L AREG L STPO L VLCR L CPHS D IANG L
99999
DCTE
(Mn) ( Val) (Mn) ( Val) (Mn) ( Val) (Mn) ( Val) (Mn) ( Val) (Mn) ( Val)
BASE   100. DASE   100. TEPA     .1 EXST    .04 TETP     5. TBPA     5.
TLPP     1. TEPR    .01 QLST    .04 TLPR    .01 TLPQ     2. TSBZ    .01
TSBA     5. ASTP    .05 VSTP     5. TLVC    .05 TLTC    .01 TSFR  .1E-7
ZMAX   500. TLPV     .5 VDVM   200. VDVN    40. TUDC   .001 TADC    .01
PGER    30. TPST    .02 VFLD    50. ZMIN   .001 HIST    470 LFIT     10
ACIT     35 LFCV      1 DCIT     10 VSIT     10 LPIT     50 LFLP     10
PDIT     10 LCRT    200 LPRT     60 CSTP     5. ASDC     1.
ICIT     50 DMAX      5 FDIV     2. ICMN    .05 VART     5. TSTP     32
ICMV     .5 APAS    90. CPAR    70. VAVT     2. VAVF     5. VMVF    15.
VPVT     2. VPVF     5. VPMF    10. VSVF    20. VINF     1. VSUP     1.
TLSI     0. NDIR    20. STTR     5. TRPT   100. STIR     1. BFPO     1.
LFPO     .1 TLMT     0. TLMF     0. TLMG     0. PARS    10.
99999
DBAR
(Num)OETGb(   nome   )Gl( V)( A)( Pg)( Qg)( Qn)( Qm)(Bc  )( Pl)( Ql)( Sh)Are(Vf)M(1)(2)(3)(4)(5)(6)(7)(8)(9)(10
 5002 L  LCABPRA-RN034 5100172.6                                         7411000                               
 5008 L  LCABPRB-RN034 5100272.7                                         7411000                               
 5019 L  GCABEPR-RN138 5100170.8                                         7411000                               
 5020 L  LTRAIT2-CE034 5100263.4                                         7621000                               
 5034 L  LCALCAR-CE034 5100275.3                                         7621000                               
 5035 L  FCALCAR-CE230 5101271.1                                         7621000                               
 5036 L  LCUTIAC-RN034 5100272.9                                         7421000                               
 5041 L  FCUTIA--RN230 5100870.9                                         7421000                               
 5042 L  LCUTIAA-RN034 5100372.7                                         7421000                               
 5043 L  LCUTIAB-RN034 5100572.8                                         7421000                               
 5044 L  LCUTIAAEOL047 5100273.9 29.6-5.38                               7421000                               
 5068 L  NLND-T1-RN013 6100369.2                                         7421000                               
 5069 L  ULND-T1-RN000 6100369.2                                         74210001                              
 5071 L  FLNOVA2-RN230 5100867.7                                         7421000                               
 5073 L  ILNOVA2-RN069 5100469.1  2.9   0.                  6.1  1.5     7431000                               
 5075 L  LCALAN1EOL030 5 99671.7  12.-4.45                               7431000                               
 5078 L  LCUTIABEOL050 5100674.4 31.5-4.63                               7421000                               
 5079 L  LSSAN12EOL025 5 99771.9  10. -3.8                               7431000                               
 5081 L  FMARACN-CE230 5101656.5                                         7621000                               
 5083 L  IMARACN-CE069 5101053.7 45.3   0.                218.4 37.8     7631000                               
 5124 L  LBSULB1EOL021 5100273.1 13.2-.257                               7411000                               
 5126 L  LCUTIACEOL052 5100174.1 32.7-6.04                               7421000                               
 5127 L  LCABPRBEOL035 5100574.7 21.8-1.68                               7411000                               
 5128 L  FJCAMR3-RN230 5 99968.9                                         7421000                               
 5168 L  GJCTBP2-RN138 5 99869.7                                         7411000                               
 5169 L  GJCTBP3-RN138 5 98470.1                                         7411000                               
 5170 L  LCALCARUFV136 5100176.2 79.2-9.78                               7621000                               
 5176 L  CTIANGD-CE500 3107057.3                          189.2-21.5     7611000                               
 5200 L  CCGT----PB500 3107456.9                          1536.-489.     7411026                               
 5202 L  FCGT----PB230 5101255.5                                         7421026                               
 5211 L  FMUSSU2-PB230 5100147.4                                         742 982                               
 5212 L  FNORFIL-PB230 5100147.3                          98.787.346     7421000                               
 5213 L  IMUSSU2-PB069 5101542.2 31.8   0.                 327. 97.1     7431029                               
 5214 L  UMRDT1--PB000 6101441.9                                         74210281                              
 5215 L  NMRDT1--PB013 6101441.9                                         7421028                               
 5216 L  FCOTEMI-PB230 5101354.6                          153.67.609     7421000                               
 5218 L1 VUTEPB-UTE000 5100147.4   0.   0.   0.   0.                     7421000                               
 5219 L1 VUTENE-UTE000 5100147.4   0.   0.   0.   0.                     7421000                               
 5220 L1 VCGRAN-UTE000 5101454.8   0.   0.   0.   0.                     7421000                               
 5222 L  FCGDBPD-PB230 5101454.8                          508.2-17.9     7421026                               
 5226 L  ICGRAN2-PB069 5101853.2 23.6   .1                               7431044                               
 5231 L  NCGDRL2-PB013 6100855.3                                         7421000                               
 5232 L1 TCGD1--CER000 5103455.3   0.13.82 -10.  20.                     7421010                               
 5235 L  GCGRAN2-PB138 5100355.6                                         7431055                               
 5236 L  UCGDT2--PB000 6100855.3                                         74210001                              
 5237 L  UCGDT1--PB000 6101455.3                                         74210001                              
 5238 L  NCGDRL1-PB013 6102155.3                                         7421000                               
 5239 L  UCGDCER-PB000 6100454.8                                         74210001                              
 5240 L1 VPOT1--UTE000 5100061.7   0.   0.   0.   0.                     7431000                               
 5241 L  FNATAL2-RN230 5100462.9                                         7421027                               
 5242 L1 VPOT3--UTE000 5100061.7   0.   0.   0.   0.                     7431000                               
 5243 L  INATAL2-RN069 5101459.9 65.8   0.                230.6  4.1     7431029                               
 5245 L  FNATAL3-RN230 5100563.1                                         7421030                               
 5246 L  INATAL3-PB069 5100061.7110.6   0.                 212.   8.     7431000                               
 5247 L  UCGDT3--PB000 6101853.1                                         74210001                              
 5248 L  NCGDT3--PB013 6101853.1                                         7421000                               
 5249 L  GPILOES-PB138 5 95253.2                                         7431000                               
 5252 L  GS.CRUZ-RN138 5104261.4                                         7431019                               
 5253 L  IS.CRUZ-RN069 5100659.7                                         7431015                               
 5254 L  FPARAIS-RN230 5100564.4                                         7421050                               
 5255 L  GPARAIS-RN138 51045 62.                                         7431000                               
 5256 L  NSTDTIP-RN013 5100659.7                                         743 977                               
 5257 L  IPNA----RN069 5100061.7                                         7431000                               
 5258 L  IPOTIGU-RN069 5100061.7                                         7431000                               
 5259 L  NCGDT5--PE013 6101853.1                                         7421000                               
 5262 L  FC.NOVO-RN230 5100967.8                                         7421011                               
 5263 L  IC.NOVO-RN069 5100267.6 50.5   0.                 85.4   1.     7431015                               
 5264 L  UCGDT5--PB000 6101853.1                                         74210001                              
 5265 L  NCNOVT1-RN013 6100467.8                                         7421000                               
 5267 L  NCNOVT2-RN013 6100467.8                                         7421000                               
 5268 L  UCRDT1--RN000 6100467.8                                         74210001                              
 5269 L  UCRDT2--RN000 6100467.8                                         74210001                              
 5271 L  FSRITA2-PB230 5100347.3                          189.718.44     7421000                               
 5272 L  USRDT1--PB000 6101547.8                                         74210001                              
 5273 L  ISRITA2-PB069 5101344.9 34.6   0.                230.9 73.9     7431000                               
 5274 L  NSRITA2-PB013 6101547.8                                         7421000                               
 5276 L  UNTDT1--RN000 6101459.7                                         74210001                              
 5277 L  NNTDT1--RN013 6101459.7                                         7421000                               
 5285 L  NAQZT1--CE013 6103758.6                                         7621000                               
 5286 L  UAQZT1--CE000 6103758.6                                         76210001                              
 5287 L  UIBDT1--CE000 6100657.3                                         76210001                              
 5288 L  NIBDT1--CE013 6100657.3                                         7621000                               
 5299 L  LFLORE-UFV086 5101678.6 51.6 -3.2                               7621000                               
 5315 L  LRIOALTUFV032 5102871.8 32.4 -10.                               7421000                               
 5318 L  CACARAT-CE500 3107257.4                           147.-36.7     7611000                               
 5320 L  LCATAVEEOL014 51005 62.  8.4-1.01                               7621000                               
 5337 L  FQUIXER-CE230 5101271.1                                         7621000                               
 5350 L  CACU3---RN500 3106469.6                                         7411000                               
 5351 L  FACU3---RN230 5 99872.1                                         7421000                               
 5352 L  FCARCAR-RN230 5101274.2                                         7621000                               
 5353 L  SCARCAR-RN012 5100975.6                                         7621000                               
 5370 L  CPECEM2-CE500 3105858.7                                         7611000                               
 5371 L  FPECEM2-CE230 5 99559.2                                         7621000                               
 5373 L  LSANTOS-CE034 5100163.2                                         7621000                               
 5374 L  LSANTOSEOL032 5100964.6 19.2-1.63                               7621000                               
 5376 L  USMDT2--RN000 61005 71.                                         74310001                              
 5377 L  NSMDT2--RN013 51005 71.                                         7431008                               
 5378 L  FTACARA-PE230 5103953.1                          209.2 -14.     7621000                               
 5380 L  CMLG2---CE500 3105459.8                          1224.-300.     7611000                               
 5381 L  FAQUIR2-CE230 5101858.3                                         7621000                               
 5383 L  IAQUIR2-CE069 5100656.8 115.   0.                301.9 95.3     7631000                               
 5386 L  UFTZT4--CE000 6102453.7                                         76210001                              
 5387 L  UFTZT2--CE000 6102553.7                                         76210001                              
 5388 L  NFTZT2--CE013 6102553.7                                         7621000                               
 5394 L  GPOLORN-RN138 5100874.3                                         7431000                               
 5407 L  NACDT5--RN013 6101071.3                                         7421000                               
 5408 L  CMILAGR-CE500 3105459.9                                         7611035                               
 5409 L  NMLGT3--CE013 5 98559.2                                         7631046                               
 5410 L  UMLGCER-CE000 61020 61.                                         76210001                              
 5411 L  FMILAGR-CE230 51032 61.                          -23.31.135     7621022                               
 5412 L  NMLGTR3-CE013 6101159.2                                         7621046                               
 5413 L  IMILAGR-CE069 5102259.3 49.5   0.                135.7 35.7     7631029                               
 5414 L  NMLGTR4-CE013 6101659.2                                         7621046                               
 5415 L  NMLGT4--CE013 5100359.2                                         7631046                               
 5416 L  NMLGTIP-CE013 5101557.1                           10.3  5.8     7631003                               
 5417 L  NMILAGR-CE013 5102757.3                                         7631046                               
 5418 L  UMLGT3--CE000 6102259.2                                         76210461                              
 5419 L  UMLGT4--CE000 6102259.2                                         76210461                              
 5421 L  FBANABU-CE230 5102766.3                                         7621055                               
 5422 L  NLIBRA--CE013 51014 63.                           14.2  2.9     7641054                               
 5423 L  IBANABU-CE069 5101664.3  41.   0.                119.4 21.7     7631029                               
 5424 L  NBNBRS--CE013 5100562.4                                         7631042                               
 5425 L  UACDT4--RN000 6101071.3                                         74210001                              
 5426 L  NBNBTIP-CE013 5101562.4                            2.2   .7     763 998                               
 5427 L  NACDT4--RN013 6101071.3                                         7421000                               
 5428 L  CQUIXAD-CE500 3104862.3                                         7611035                               
 5429 L  UACDT5--RN000 6101071.3                                         74210001                              
 5431 L  FRUSSAS-CE230 5101369.9                                         7621030                               
 5433 L  IRUSSAS-CE069 5101167.8 46.9   0.                147.5 19.6     7631029                               
 5434 L  FARACT2-CE230 5101371.1                                         7621000                               
 5438 L  LARACT2-CE034 5100673.5                                         7621000                               
 5439 L  LCANOAQEOL067 5100574.5 42.2-14.3                               7621000                               
 5441 L  FMOSSO2-RN230 5101171.9                                         7421027                               
 5442 L  UMSDT1--RN000 6101170.7                                         74210001                              
 5443 L1 IMSD----PB069 5101170.8116.29.015   0.  20.      231.4  3.7     7431029                               
 5444 L  UMSDT2--RN000 6101270.7                                         74210001                              
 5445 L  NMSD-T2-RN013 6 99870.7                                         7421058                               
 5448 L  LPFORMO-CE034 5100161.5                                         7621000                               
 5449 L  FPFORMO-CE230 5101259.7                                         7621000                               
 5451 L  CFTZ2---CE500 31038 59.                                         7611060                               
 5452 L  FFORTAL-CE230 5102457.5                                         7621052                               
 5453 L  IFORTAL-CE069 51026 54. 38.1   0.                282.1 75.9     7631029                               
 5456 L  NFTZTR4-CE013 6102453.7                                         7621037                               
 5457 L  NFTZT4--CE013 5102453.7                                         7631075                               
 5458 L  FFTZ2---CE230 5102457.5                                         7621050                               
 5459 L  LALEGRIEOL092 5104877.2 45.5   0.                               7421000                               
 5460 L1 VMRU---UTE000 51026 54.   0.   0.   0.   0.                     7631000                               
 5461 L  FACU2---RN230 5100371.9                                         7421024                               
 5462 L  FUT-JSP-RN230 5100471.9                                         7421026                               
 5463 L  IACU2---RN069 5101071.3 27.6   0.                 79.6 -1.4     7431044                               
 5466 L1 VUJSP--UTE000 5100471.9   0.   0.   0.   0.                     7421026                               
 5468 L  GACU2---RN138 5 99772.6                           20.1  -.5     7431031                               
 5470 L  FMIASS3-RN230 5101174.2                                         7421000                               
 5471 L  FD.GOUV-CE230 5102357.3                                         7621051                               
 5472 L  LP.MORGEOL019 51000 64.  8.5-1.67                               7621000                               
 5473 L  ID.GOUV-CE069 5101555.2 11.8   0.                131.7 36.2     7631029                               
 5474 L  GS.MATO-RN138 5 99471.8                                         7431018                               
 5475 L  IS.MATO-RN069 5100571.1  8.7   0.                 18.5   .6     7431000                               
 5476 L  NSMDT1--RN013 51005 71.                                         7431008                               
 5477 L  LMIASS3-RN034 5 97176.2                                         7421000                               
 5478 L  USMDT1--RN000 61005 71.                                         74310001                              
 5480 L  CSBT----CE500 3106357.7                                         7611070                               
 5481 L  FSBD----CE230 5100556.9                                         7621002                               
 5482 L  USBDT1--CE000 6101251.8                                         76210601                              
 5483 L  ISOBRAL-CE069 5102053.6 67.7   0.                256.2 20.8     7631029                               
 5484 L  USBDT2--CE000 6102151.8                                         76210481                              
 5485 L  NSBDT1--CE013 6104051.8                                         7621060                               
 5486 L  FACARAU-CE230 5100757.8                                         7621000                               
 5487 L  NSBDT2--CE013 6102951.8                                         7621076                               
 5488 L  FSBT----CE230 5100557.4                                         7621006                               
 5489 L  IAUDC2--CE069 5100359.7                                         7621000                               
 5518 L  FALEGRI-RN230 51024 74.                                         7421000                               
 5519 L  LALG----RN034 5104476.4                                         7421000                               
 5527 L  FMASSAP-CE230 5100857.8                                         7621010                               
 5536 L  LICAZIN-CE034 5 99861.4                                         7621000                               
 5537 L  FICAZIN-CE230 5101259.2                                         7621000                               
 5611 L  FTAUA2--CE230 5 99754.6                          8.585-3.61     7621000                               
 5612 L  LTRAIT3EOL036 51002 65. 29.1-3.53                               7621000                               
 5613 L  ITAUA2--CE069 5100853.5 21.9   0.                 52.4 -1.1     7631000                               
 5621 L  FCOREMA-PB230 5102467.2                                         742 963                               
 5623 L  ICOREMA-CE069 5100968.3130.7   0.                209.2  55.     7631044                               
 5624 L  UCMAT1--PB000 6100868.4                                         74210331                              
 5625 L  NCMAT1--PB013 6100868.4                                         7421000                               
 5626 L  UCMAT2--PB000 6100968.4                                         74210001                              
 5627 L  NCMAT2--PB013 6100968.4                                         7421000                               
 5631 L  FICO----CE230 5103265.4                                         7621029                               
 5633 L  IICO----CE069 5101763.5                                         7631015                               
 5641 L  FPICI2--CE230 5101256.3                                         7621050                               
 5643 L  IPICI2--CE069 5102653.1 43.4   0.                270.9 67.1     7631015                               
 5651 L  FCAUIPE-CE230 51017 57.                                         762 989                               
 5653 L  ICAUIPE-CE069 51012 54. 59.1   0.                204.6 31.4     7631015                               
 5656 L  FPPC1--UTE000 5 99559.2                                         7621000                               
 5658 L1 VPPECEMUTE000 5 99559.2   0.   0.   0.   0.                     7621000                               
 5659 L1 VPPD---UTE000 5 99559.2   0.   0.   0.   0.                     7621000                               
 5660 L1 VTERMOCUTE000 51017 57.   0.   0.   0.   0.                     7621000                               
 5690 L  FCSP----CE230 5 99559.2                           166. 54.6     7641000                               
 5702 L  LSOLFUTUFV072 5101163.8 48.6-.658                               7631000                               
 5745 L  LFLORES-RN034 5101676.5                                         7621000                               
 5746 L2 VCSP---UTE002   99561.3 158.3.047 -59. 206.                     7641000                               
 5799 L1 VCSP---UTE001  100364.6 14.21.882  -8.  16.                     7641000                               
...
99999
DLIN
(De )d O d(Pa )NcEP ( R% )( X% )(Mvar)(Tap)(Tmn)(Tmx)(Phs)(Bc  )(Cn)(Ce)Ns(Cq)(1)(2)(3)(4)(5)(6)(7)(8)(9)(10
 5002      6052 1    1.82516.636 3.556                          99999999  9999                              
 5008      5127 1     1.7616.304 3.444                          99999999  9999                              
 5019      5002 1          15.29         1.                     99999999  9999                              
 5019      5008 1          15.29         1.                     99999999  9999                              
 5020      7199 1   4.686918.644 1.564                          99999999  9999                              
 5034      5170 1     .146 1.886  2.96                          99999999  9999                              
 5035      5034 1           9.33         1.   .9  1.1      -5034120.140.32120.                              
 5036      5126 1     .678  6.23   1.9                          99999999  9999                              
 5041      5036 3         10.833         1.   .9  1.1      -5036120.140.32120.                              
 5041      5042 1         10.833         1.                     120.140.  120.                              
 5041      5043 2         10.833         1.   .9  1.1      -5043120.140.32120.                              
 5042      5044 1     .782 6.911 1.509                          99999999  9999                              
 5043      5078 1    1.642  8.73 2.532                          99999999  9999                              
 5069      5068 1           28.7         1.                       1.  1.    1.                              
 5069      5073 1          -.773         1.                     150.180.  150.                              
 5071      5069 1          9.413      .9982 .7261.117      -5073150.180.21150.                              
 5071      5073 2            8.8         1. .7261.117      -5073150.180.21150.                              
 5071      5073 3           8.45         1. .7261.117      -5073150.180.21150.                              
 5071      5254 7      .48  3.54 23.36                          554.697.  697.                              
 5071      5254 8     1.23  6.52 12.04                          299.299.  299.                              
 5071      8796 6      .33  1.67 3.107                          250.292.  250.                              
 5071     44705 3     .6633.3252 6.151                          299.299.  299.                              
 5073      8087 1     .938  2.32  .039                           68. 68.   68.                              
 5073      8089 1    1.186 5.157    .1                          106.106.  106.                              
 5073      8092 1    1.186 5.157 .5987                          106.106.  106.                              
 5073      8094 1    1.0483.7385  .274                          168.212.  212.                              
 5073      8109 1     .512 2.876  .027                           93.117.  117.                              
 5081      7231 1    .18339.6333      .9928   .9  1.1      -5083150.180.19150.                              
 5081      7233 2    .18339.6333      .9928   .9  1.1      -5083150.180.19150.                              
 5081      7599 3    .18339.6333      .9928   .9  1.1      -5083150.180.19150.                              
 5083      7231 1    .0233-.9467         1.                     150.180.  150.                              
 5083      7233 2    .0233-.9467         1.                     150.180.  150.                              
 5083      7599 3    .0233-.9467         1.                     150.180.  150.                              
 5128      6141 1     .059  .587 2.277                          630.781.  630.                              
 5128      6141 2     .059  .587 2.277                          630.781.  630.                              
 5128      8148 1    .19621.9735 7.527                          450.639.  450.                              
 5128      8374 4     .349  2.47 4.895                          306.358.  306.                              
 5128      8895 5    .23921.4374 2.758                          350.350.  350.                              
 5128     44100 6   .01152-.3109      .9239   .9  1.1       5128900.108032900.                              
 5128     44102 7   .01152-.3109      .9239   .9  1.1       5128900.108032900.                              
 5128     44104 8   .01152-.3109      .9239   .9  1.1       5128900.108032900.                              
 5168      5019 1    .5583  4.54 5.919                          99999999  9999                              
 5168      5960 3     .312 2.626  1.61                          99999999  9999                              
 5168      5989 1      .56 2.476  .656                          99999999  9999                              
 5168      6184 5     .858 1.813 3.288                          99999999  9999                              
 5168     44066 3    .0298-.2581      .9299.86011.196       5168450.585.25450.                              
 5168     44068 4    .0299-.2734      .9299.86011.196       5168450.585.25450.                              
 5169      8115 4    .84753.7161 1.007                          99999999  9999                              
 5169      8116 4    .84712.7773 .6136                          99999999  9999                              
 5169      8645 2    .50471.6988 .4466                          99999999  9999                              
 5169      8657 4   1.85763.6008  .401                          99999999  9999                              
 5169      8658 1     .597 1.818 .2925                          99999999  9999                              
 5169      8663 6    1.904 9.904  .684                          99999999  9999                              
 5169     44064 2    .0111-.2597      .9065  .861.196       5169450.540.24450.                              
 5176      5318 1     .109  1.69 242.4                          25983204  2598                              
 5176      5480 5     .075 1.087 158.2                          21232676  2123                              
 5176      5480 8    .0719 1.112 170.6                          21232676  2123                              
 5176      601199         30.119                                99999999  9999                              
 5176      7959 1    .0168 2.905      1.064   .9  1.1      -5917600.720.33600.                              
 5176      7960 2    .0168 2.905      1.064   .9  1.1      -5917600.720.33600.                              
 5200      538099         6.8757                                99999999  9999                              
 5200      5836 1    .08431.5127 161.3                          26773373  2677                              
 5200      6130 2    .14122.2074 296.9                          26783373  3373                              
 5200      6130 3     .128 2.182 313.4                          26783373  2678                              
 5200     42374 1     .007 2.481         1.                     600.720.  600.                              
 5200     42376 2          2.451         1.                     600.720.  600.                              
 5200     45548 2    .0632 .9279 98.66                          15232621  1523                              
 5202      5222 3       .1   .73  2.72                          503.633.  503.                              
 5202      5222 4       .1   .73  2.72                          503.621.  503.                              
 5202      5222 5      .09   .65  2.46                          503.633.  503.                              
 5202      6131 2 T   1.75 12.66 47.66                          503.633.  503.                              
 5202     42374 1     .018 -.257       .934  .86 1.18       5202600.720.33600.                              
 5202     42376 2          -.232       .934  .86 1.18       5202600.720.33600.                              
 5211      5213 2          13.26      .9662 .7261.117      -5213100.100.21 30.                              
 5211      5213 3          13.03      .9662 .7261.117      -5213100.106.21 30.                              
 5211      5213 4          12.53      .9662 .7261.117      -5213100.106.21 30.                              
 5211      5214 1         13.795      .9657 .7261.117      -5213100.100.21100.                              
 5212      520099         39.089                                99999999  9999                              
 5212      5211 3     .035  .187  .344                          200.250.  200.                              
 5212      521699         366.74                                99999999  9999                              
 5212      522299         49.843                                99999999  9999                              
 5212      527199         210.84                                99999999  9999                              
 5212      538099          322.2                                99999999  9999                              
 5212      583799         13.047                                99999999  9999                              
 5212      8023 1 T    .81  3.39                                99999999  150.                              
 5212      8024 1 T   .523 2.102                                99999999   36.                              
 5212      8025 1     .001  .001                                99999999  9999                              
 5213      5214 1          -.605         1.                     100.100.  100.                              
 5213     47123 1 T         .001                                99999999  9999                              
 5215      5214 1         13.405         1.                      30. 32.   30.                              
 5216      520099         30.241                                99999999  9999                              
 5216      522299         110.71                                99999999  9999                              
 5216      527199          123.1                                99999999  9999                              
 5216      538099         265.95                                99999999  9999                              
 5216      583799         122.67                                99999999  9999                              
 5216      8446 1     .001  .001                                99999999  9999                              
 5222      520099         8.1319                                99999999  9999                              
 5222      5216 3      .02   .17   .62                          478.478.  478.                              
 5222      5220 1           6.67         1.                     180.180.  180.                              
 5222      5226 4           13.3      .9804 .8481.048      -5226100.107.32100.                              
 5222      5226 8     .299 12.93      .9804 .7261.117      -5226100.120.21140.                              
 5222      5236 2          16.47         1.                      55. 55.  100.                              
 5222      5237 1           16.1         1.                      55. 55.   30.                              
 5222      5239 6           -.66         1.                     200.200.  200.                              
 5222      5247 3         15.125      .9804 .8481.048      -5226100.107.32100.                              
 5222      5254 1     2.16 11.06  20.9                          251.317.  150.                              
 5222      5254 2     2.16 11.06  20.9                          251.317.  206.                              
 5222      5264 5          15.06      .9804 .8481.048      -5226100.107.32100.                              
 5222      538099          25.98                                99999999  9999                              
 5222     44110 1    .0665 .3325                                190.190.  190.                              
 5226      5247 3          -.785         1.                     100.107.  100.                              
 5226      5264 5           -.61         1.                     100.107.  100.                              
 5226      8026 1 T         .001                                99999999  9999                              
 5226      8027 1 T         .001                                99999999  9999                              
 5232      5238 1          16.28                                99999999  9999                              
 5235      5249 1     7.08 20.53   5.2                           81. 84.   81.                              
 5235      5252 1    10.32 29.58  7.76                           81. 84.    5.                              
 5236      5231 2           8.64         1.                      22. 22.    5.                              
 5236      5235 2          12.69         1.                      50. 50.    5.                              
 5237      5235 1          12.93         1.                      50. 50.   10.                              
 5237      5238 1            8.4         1.                      22. 22.   10.                              
 5239      7039 6          14.46         1.                     100.100.  100.                              
 5239      7040 6          14.46         1.                     100.100.  100.                              
 5241      5243 2          12.78         1. .7261.117      -5243100.103.21103.                              
 5241      5243 3          13.02         1. .7261.117      -5243100.103.21103.                              
 5241      5243 4          12.54         1. .7261.117      -5243100.103.21103.                              
 5241      5276 1         13.875         1. .7261.117      -5243100.103.21103.                              
 5243      5276 1          -.985         1.                     100.103.  100.                              
 5243     47007 1 T         .001                                99999999  9999                              
 5245      5241 3      .11   .77  2.86                          503.633.  503.                              
 5245      5241 4      .11   .77  2.86                          503.633.  503.                              
 5245      5246 3      .12  9.04      1.002   .9 1.14      -5246150.180.25150.                              
 5245     43993 1     .103 9.323      1.002   .9 1.14      -5246150.150.25150.                              
 5245     43995 2           9.82      1.002   .9 1.14      -5246150.  1.25150.                              
 5246      5257 1     4.16 10.13  .175                           59. 71.   59.                              
 5246      5257 2     2.33 10.23  .192                           89.106.   89.                              
 5246     43993 1     .082 -.677         1.                     150.150.  150.                              
 5246     43995 2          -1.18         1.                     150.180.  150.                              
 5246     47008 1 T         .001                                99999999  9999                              
 5248      5247 3          6.375         1.                      30. 32.   30.                              
 5249      8029 1 T         .001                                99999999  9999                              
 5252      5253 1          24.22      1.051 .9451.129      -5253 45. 54.16 45.                              
 5252      8175 1          28.23      1.016 .8611.114      -5253 50. 60.20 50.                              
 5252      8177 1          28.06      1.016 .8611.114      -5253 50. 60.20 50.                              
 5253      5256 1           79.8         1.                      10. 10.   10.                              
 5253      5256 2           79.8         1.                      10. 10.   10.                              
 5253      8030 1 T         .001                                99999999  9999                              
 5253      8031 1 T         .001                                99999999  9999                              
 5254      5241 1      1.8  9.18 17.26                          251.317.  225.                              
 5254      5241 2      1.8  9.17 17.26                          251.317.  206.                              
 5254      5255 1     .282 9.296      .9425 .7261.117      -5255100.100.21100.                              
 5254      5255 2     .264  9.19      .9425 .7261.117      -5255100.100.21104.                              
 5254      5461 4     2.43 12.53 23.22                          300.357.  300.                              
 5254      5461 5    2.486 12.58 23.22                          300.357.  357.                              
 5255      5249 1     9.58 27.88  7.08                           81. 84.   81.                              
 5255      5252 1     .315 1.565  .382                           81. 81.   81.                              
 5255      8242 1           .001                                99999999  9999                              
 5257      5258 1     1.41   6.2  .116                           89.106.   89.                              
 5257      5258 2     1.41   6.2  .116                           89.106.   89.                              
 5258      5240 1           35.2         1.                      62. 62.   62.                              
 5258      5242 1           35.2         1.                      93. 93.   93.                              
 5259      5264 5           6.84         1.                      30. 32.   30.                              
 5262      5071 1     .463 2.289   4.4                          300.300.  300.                              
 5262      5071 2     .463 2.289   4.4                          300.300.  300.                              
 5262      5268 1            .28      1.005   .9  1.1      -5263100.100.21 80.                              
 5262      5269 2            .28      1.005   .9  1.1      -5263100.100.21 80.                              
 5268      5263 1          13.28         1.                     100.100.   80.                              
 5268      5265 1          43.72         1.                       1.  1.    1.                              
 5269      5263 2          13.28         1.                     100.100.   80.                              
 5269      5267 2          43.72         1.                       1.  1.    1.                              
 5271      520099         16.893                                99999999  9999                              
 5271      522299         47.774                                99999999  9999                              
 5271      5272 1     .071 -2.01      .9875 .7261.117      -5273150.180.21150.                              
 5271      5273 2           9.26      .9774 .7261.117      -5273150.150.21150.                              
 5271      5273 3           8.67      .9774 .7261.117      -5273150.180.21150.                              
 5271      537899         387.98                                99999999  9999                              
 5271      538099          98.04                                99999999  9999                              
 5271      583799         70.525                                99999999  9999                              
 5273      5272 1     .21611.257         1.                     150.180.  150.                              
 5273     47124 1 T         .001                                99999999  9999                              
 5274      5272 1      .4520.057         1.                     99999999  9999                              
 5277      5276 1          7.745         1.                      30. 31.   30.                              
 5285      5286 1    .799920.345         1.                       1.  1.    1.                              
 5287      5288 1         25.412         1.                       1.  1.    1.                              
 5287      6013 1          -.962         1.                     100.120.  100.                              
 5299      5745 1     .267  7.35 4.587                          99999999  9999                              
 5315      5959 1 T  .29366.1328 6.704                          999.999.  999.                              
 5318      517699         4.2824                                99999999  9999                              
 5318      5370 1     .117 2.335 260.3                          25983204  2598                              
 5318      8363 1         2.3366      1.062   .9  1.1      -5923750.900.32750.                              
 5318      8364 2         2.3366      1.062   .9  1.1      -5923750.900.32750.                              
 5337      5035 1    .0065 .0257 .0407                          99999999  9999                              
 5337      5441 1      .93  4.92   8.5                          251.317.  251.                              
 5337      8448 1 T   .001  .001                                99999999  9999                              
 5350      7230 4    .01671.7638      1.081   .9  1.1      -5351900.108034900.                              
 5350      8928 3    .01671.7638      1.081   .9  1.1      -5351900.108034900.                              
 5351      5441 7   1.25596.3113 11.04                          300.321.  321.                              
 5351      5441 8    1.2436.2283 11.42                          299.357.  357.                              
 5351      7230 4   .00252-.2362         1.                     900.1080  900.                              
 5351      8160 1 T  .71713.8471  13.6                          175.227.  175.                              
...
99999
DCSC
(De ) O  (Pa )NcEPB      (Xmin)(Xmax)( Xv )C ( Vsp) (Ext)Nst(Cn)(Ce)(Cq)(1)(2)(3)(4)(5)(6)(7)(8)(9)(10
99999
DCAI
(Num) O  Gr E (U) UOp ( P ) ( Q ) (A) (B) (C) (D) (Vfl) (Vf)
99999
DGEI
(Num) OA Gr E(U)UOpUOn( Pg)( Qg)( Qn)( Qm)(Xtrf) ( Xd)( Xq)( Xl) (fp)( Sn)(Ptu)
99999
DBSH
(NFr) O (NTo) Nc C (Vmn (Vmx Bctrl (Qini) T A (Extr
 5042            D 0950 1050  5042        C
(G  O E (U) UOp (Sht ) M
10        1   0    20. S
90        1   0   5.27 S
FBAN
(NFr) O (NTo) Nc C (Vmn (Vmx Bctrl (Qini) T A (Extr
 5043            D 0950 1050  5043        C
(G  O E (U) UOp (Sht ) M
10        1   0    20. S
90        1   0   5.27 S
FBAN
(NFr) O (NTo) Nc C (Vmn (Vmx Bctrl (Qini) T A (Extr
 5176            F 1000 1100  5176  -100. C
(G  O E (U) UOp (Sht ) M
10        1   1  -100. S
FBAN
(NFr) O (NTo) Nc C (Vmn (Vmx Bctrl (Qini) T A (Extr
 5176    5318  1 F 1000 1100  5176  -150. C    5176
(G  O E (U) UOp (Sht ) M
10        1   1  -150. N
FBAN
(NFr) O (NTo) Nc C (Vmn (Vmx Bctrl (Qini) T A (Extr
 5200            F 1000 1100  5200        C
(G  O E (U) UOp (Sht ) M
10        2   0  -150. S
FBAN
(NFr) O (NTo) Nc C (Vmn (Vmx Bctrl (Qini) T A (Extr
 5926    5200  6 F 1000 1100  5200  -100. C    5200
(G  O E (U) UOp (Sht ) M
10        1   1  -100. N
FBAN
(NFr) O (NTo) Nc C (Vmn (Vmx Bctrl (Qini) T A (Extr
 5200    6130  2 F 1000 1100  5200  -100. C    5200
(G  O E (U) UOp (Sht ) M
10        1   1  -100. N
FBAN
(NFr) O (NTo) Nc C (Vmn (Vmx Bctrl (Qini) T A (Extr
 5200    6130  3 F 1000 1100  5200  -100. C    5200
(G  O E (U) UOp (Sht ) M
10        1   1  -100. N
FBAN
(NFr) O (NTo) Nc C (Vmn (Vmx Bctrl (Qini) T A (Extr
 5213            D 0800 1200  5213   42.6 C
(G  O E (U) UOp (Sht ) M
10        2   2   21.3 S
FBAN
(NFr) O (NTo) Nc C (Vmn (Vmx Bctrl (Qini) T A (Extr
 5222            D 0950 1050  5222        C
(G  O E (U) UOp (Sht ) M
10        1   0   -30. S
20        1   0   -10. S
30        1   0   50.5 S
FBAN
(NFr) O (NTo) Nc C (Vmn (Vmx Bctrl (Qini) T A (Extr
 5226            D 0900 1100  5226   21.3 C
(G  O E (U) UOp (Sht ) M
10        2   1   21.3 S
FBAN
(NFr) O (NTo) Nc C (Vmn (Vmx Bctrl (Qini) T A (Extr
 5232            D 0930 1050  5232    -5. C
(G  O E (U) UOp (Sht ) M
10        2   1    -5. S
FBAN
(NFr) O (NTo) Nc C (Vmn (Vmx Bctrl (Qini) T A (Extr
 5241            D 0950 1050  5241   -30. C
(G  O E (U) UOp (Sht ) M
10        1   1   -30. S
FBAN
(NFr) O (NTo) Nc C (Vmn (Vmx Bctrl (Qini) T A (Extr
 5245    5241  3 D 0950 1050  5241        C    5241
(G  O E (U) UOp (Sht ) M
10        1   0   -10. S
FBAN
(NFr) O (NTo) Nc C (Vmn (Vmx Bctrl (Qini) T A (Extr
 5254    5241  2 D 0950 1050  5241        C    5241
(G  O E (U) UOp (Sht ) M
10        1   0   -10. S
FBAN
(NFr) O (NTo) Nc C (Vmn (Vmx Bctrl (Qini) T A (Extr
 5243            D 0950 1050  5243   21.3 C
(G  O E (U) UOp (Sht ) M
10        4   1   21.3 S
FBAN
(NFr) O (NTo) Nc C (Vmn (Vmx Bctrl (Qini) T A (Extr
 5252            D 0950 1050  5252        C
(G  O E (U) UOp (Sht ) M
10        1   0   -10. S
FBAN
(NFr) O (NTo) Nc C (Vmn (Vmx Bctrl (Qini) T A (Extr
 5273            D 0950 1050  5273   42.6 C
(G  O E (U) UOp (Sht ) M
10        2   2   21.3 S
FBAN
(NFr) O (NTo) Nc C (Vmn (Vmx Bctrl (Qini) T A (Extr
 5318            F 1000 1100  5318  -100. C
(G  O E (U) UOp (Sht ) M
10        1   1  -100. S
FBAN
(NFr) O (NTo) Nc C (Vmn (Vmx Bctrl (Qini) T A (Extr
 5318    5370  1 F 1000 1100  5318   -90. C    5318
(G  O E (U) UOp (Sht ) M
10        1   1   -90. N
FBAN
(NFr) O (NTo) Nc C (Vmn (Vmx Bctrl (Qini) T A (Extr
 5350            F 1000 1100  5350  -450. C
(G  O E (U) UOp (Sht ) M
10        3   3  -150. S
FBAN
(NFr) O (NTo) Nc C (Vmn (Vmx Bctrl (Qini) T A (Extr
 5380    5350  2 F 1000 1100  5350  -155. C    5350
(G  O E (U) UOp (Sht ) M
10        1   1  -155. N
FBAN
(NFr) O (NTo) Nc C (Vmn (Vmx Bctrl (Qini) T A (Extr
 5428    5350  2 F 1000 1100  5350  -150. C    5350
(G  O E (U) UOp (Sht ) M
10        1   1  -150. N
FBAN
(NFr) O (NTo) Nc C (Vmn (Vmx Bctrl (Qini) T A (Extr
 5924    5350  7 F 1000 1100  5350  -100. C    5350
(G  O E (U) UOp (Sht ) M
10        1   1  -100. S
FBAN
(NFr) O (NTo) Nc C (Vmn (Vmx Bctrl (Qini) T A (Extr
 5318    5370  1 F 1000 1100  5370   -90. C    5370
(G  O E (U) UOp (Sht ) M
10        1   1   -90. N
FBAN
(NFr) O (NTo) Nc C (Vmn (Vmx Bctrl (Qini) T A (Extr
 5380            D 1000 1100  5380  -100. C
(G  O E (U) UOp (Sht ) M
10        2   1  -100. S
FBAN
(NFr) O (NTo) Nc C (Vmn (Vmx Bctrl (Qini) T A (Extr
 5380    5350  2 F 1000 1100  5380  -155. C    5380
(G  O E (U) UOp (Sht ) M
10        1   1  -155. N
FBAN
(NFr) O (NTo) Nc C (Vmn (Vmx Bctrl (Qini) T A (Extr
 5926    5380  5 F 1000 1100  5380  -100. C    5380
(G  O E (U) UOp (Sht ) M
10        1   1  -100. N
FBAN
(NFr) O (NTo) Nc C (Vmn (Vmx Bctrl (Qini) T A (Extr
 5408            D 1000 1100  5408  -100. C
(G  O E (U) UOp (Sht ) M
10        1   1  -100. S
FBAN
(NFr) O (NTo) Nc C (Vmn (Vmx Bctrl (Qini) T A (Extr
 5428    5408  3 F 1000 1100  5408  -150. C    5408
(G  O E (U) UOp (Sht ) M
10        1   1  -150. N
FBAN
(NFr) O (NTo) Nc C (Vmn (Vmx Bctrl (Qini) T A (Extr
 5409            D 0900 1050  5409   -10. C
(G  O E (U) UOp (Sht ) M
10        1   1   -10. S
20        1   0    -5. S
FBAN
(NFr) O (NTo) Nc C (Vmn (Vmx Bctrl (Qini) T A (Extr
 5411            D 0950 1050  5411        C
(G  O E (U) UOp (Sht ) M
10        1   0   -20. S
20        2   0    50. S
FBAN
(NFr) O (NTo) Nc C (Vmn (Vmx Bctrl (Qini) T A (Extr
 5413            D 0950 1050  5413        C
(G  O E (U) UOp (Sht ) M
10        1   0   20.3 S
FBAN
(NFr) O (NTo) Nc C (Vmn (Vmx Bctrl (Qini) T A (Extr
 5415            D 0900 1100  5415    -5. C
(G  O E (U) UOp (Sht ) M
10        1   1    -5. S
FBAN
(NFr) O (NTo) Nc C (Vmn (Vmx Bctrl (Qini) T A (Extr
 5421            D 0950 1050  5421        C
(G  O E (U) UOp (Sht ) M
10        1   0   -20. S
20        2   0    50. S
FBAN
(NFr) O (NTo) Nc C (Vmn (Vmx Bctrl (Qini) T A (Extr
 5411    5421  1 D 0950 1050  5421   -10. C    5421
(G  O E (U) UOp (Sht ) M
10        1   1   -10. N
FBAN
(NFr) O (NTo) Nc C (Vmn (Vmx Bctrl (Qini) T A (Extr
 5631    5421  2 D 0950 1050  5421   -10. C    5421
(G  O E (U) UOp (Sht ) M
10        1   1   -10. N
FBAN
(NFr) O (NTo) Nc C (Vmn (Vmx Bctrl (Qini) T A (Extr
 5631    5421  3 F 0950 1050  5421   -10. C    5421
(G  O E (U) UOp (Sht ) M
10        1   1   -10. N
FBAN
(NFr) O (NTo) Nc C (Vmn (Vmx Bctrl (Qini) T A (Extr
 5428            D 1000 1100  5428  -180. C
(G  O E (U) UOp (Sht ) M
10        1   1  -180. S
FBAN
(NFr) O (NTo) Nc C (Vmn (Vmx Bctrl (Qini) T A (Extr
 5428    5350  2 F 1000 1100  5428  -150. C    5428
(G  O E (U) UOp (Sht ) M
10        1   1  -150. N
FBAN
(NFr) O (NTo) Nc C (Vmn (Vmx Bctrl (Qini) T A (Extr
 5428    5408  3 F 1000 1100  5428  -150. C    5428
(G  O E (U) UOp (Sht ) M
10        1   1  -150. N
FBAN
(NFr) O (NTo) Nc C (Vmn (Vmx Bctrl (Qini) T A (Extr
 5441            D 0950 1050  5441   -20. C
(G  O E (U) UOp (Sht ) M
10        1   1   -20. S
FBAN
(NFr) O (NTo) Nc C (Vmn (Vmx Bctrl (Qini) T A (Extr
 5445            D 0950 1050  5445    -5. C
(G  O E (U) UOp (Sht ) M
10        3   1    -5. S
20        4   0    3.6 S
FBAN
(NFr) O (NTo) Nc C (Vmn (Vmx Bctrl (Qini) T A (Extr
 5451            D 1000 1100  5451 -148.8 C
(G  O E (U) UOp (Sht ) M
10        3   1 -148.8 S
FBAN
(NFr) O (NTo) Nc C (Vmn (Vmx Bctrl (Qini) T A (Extr
 5451    5428  5 D 1000 1100  5451  -150. C    5451
(G  O E (U) UOp (Sht ) M
10        1   1  -150. N
FBAN
(NFr) O (NTo) Nc C (Vmn (Vmx Bctrl (Qini) T A (Extr
 5452            D 0950 1050  5452   -10. C
(G  O E (U) UOp (Sht ) M
10        1   1   -10. S
FBAN
(NFr) O (NTo) Nc C (Vmn (Vmx Bctrl (Qini) T A (Extr
 5381    5452  1 F 0950 1050  5452   -10. C    5452
(G  O E (U) UOp (Sht ) M
10        1   1   -10. N
FBAN
(NFr) O (NTo) Nc C (Vmn (Vmx Bctrl (Qini) T A (Extr
 5381    5452  3 F 0950 1050  5452   -10. C    5452
(G  O E (U) UOp (Sht ) M
10        1   1   -10. N
FBAN
(NFr) O (NTo) Nc C (Vmn (Vmx Bctrl (Qini) T A (Extr
 5458    5452  4 F 0950 1050  5452   -10. C    5452
(G  O E (U) UOp (Sht ) M
10        1   1   -10. N
FBAN
(NFr) O (NTo) Nc C (Vmn (Vmx Bctrl (Qini) T A (Extr
 5458    5452  6 F 0950 1050  5452   -10. C    5452
(G  O E (U) UOp (Sht ) M
10        1   1   -10. N
FBAN
(NFr) O (NTo) Nc C (Vmn (Vmx Bctrl (Qini) T A (Extr
 5453            D 0950 1050  5453   20.4 C
(G  O E (U) UOp (Sht ) M
10        4   1   20.4 S
FBAN
(NFr) O (NTo) Nc C (Vmn (Vmx Bctrl (Qini) T A (Extr
 5457            F 0930 1050  5457        C
(G  O E (U) UOp (Sht ) M
10        3   0    3.1 S
20        1   0    -5. S
FBAN
(NFr) O (NTo) Nc C (Vmn (Vmx Bctrl (Qini) T A (Extr
 5470            D 0950 1050  5470        C
(G  O E (U) UOp (Sht ) M
10        1   0   -20. S
FBAN
(NFr) O (NTo) Nc C (Vmn (Vmx Bctrl (Qini) T A (Extr
 5471            D 0950 1050  5471        C
(G  O E (U) UOp (Sht ) M
10        1   0    50. S
FBAN
(NFr) O (NTo) Nc C (Vmn (Vmx Bctrl (Qini) T A (Extr
 5473            D 0800 1200  5473   24.3 C
(G  O E (U) UOp (Sht ) M
10        4   1   24.3 S
FBAN
(NFr) O (NTo) Nc C (Vmn (Vmx Bctrl (Qini) T A (Extr
 5476            D 0900 1100  5476        C
(G  O E (U) UOp (Sht ) M
10        1   0    -5. S
20        2   0    1.8 S
FBAN
(NFr) O (NTo) Nc C (Vmn (Vmx Bctrl (Qini) T A (Extr
 5477            F 0950 1050  5477   -9.5 C
(G  O E (U) UOp (Sht ) M
10        1   1   -9.5 S
FBAN
(NFr) O (NTo) Nc C (Vmn (Vmx Bctrl (Qini) T A (Extr
 5480            F 1000 1100  5480  -150. C
(G  O E (U) UOp (Sht ) M
10        1   1  -150. S
FBAN
(NFr) O (NTo) Nc C (Vmn (Vmx Bctrl (Qini) T A (Extr
 5480    5370  6 F 1000 1100  5480 -148.8 C    5480
(G  O E (U) UOp (Sht ) M
10        1   1 -148.8 N
FBAN
(NFr) O (NTo) Nc C (Vmn (Vmx Bctrl (Qini) T A (Extr
 5480    5370  7 F 1000 1100  5480 -148.8 C    5480
(G  O E (U) UOp (Sht ) M
10        1   1 -148.8 N
FBAN
(NFr) O (NTo) Nc C (Vmn (Vmx Bctrl (Qini) T A (Extr
 5481    5651  2 F 0950 1050  5481   -10. C    5481
(G  O E (U) UOp (Sht ) M
10        1   1   -10. N
FBAN
(NFr) O (NTo) Nc C (Vmn (Vmx Bctrl (Qini) T A (Extr
 6011    5481  1 F 0950 1050  5481   -10. C    5481
(G  O E (U) UOp (Sht ) M
10        1   1   -10. N
FBAN
(NFr) O (NTo) Nc C (Vmn (Vmx Bctrl (Qini) T A (Extr
 5483            D 1000 1050  5483   24.4 C
(G  O E (U) UOp (Sht ) M
10        2   1   24.4 S
FBAN
(NFr) O (NTo) Nc C (Vmn (Vmx Bctrl (Qini) T A (Extr
 5485            F 0950 1100  5485   10.8 C
(G  O E (U) UOp (Sht ) M
10        3   3    3.6 S
FBAN
(NFr) O (NTo) Nc C (Vmn (Vmx Bctrl (Qini) T A (Extr
 5486            D 0950 1050  5486   -20. C
(G  O E (U) UOp (Sht ) M
10        1   1   -20. S
FBAN
(NFr) O (NTo) Nc C (Vmn (Vmx Bctrl (Qini) T A (Extr
 5611            F 0950 1050  5611        C
(G  O E (U) UOp (Sht ) M
10        1   0   -15. S
FBAN
(NFr) O (NTo) Nc C (Vmn (Vmx Bctrl (Qini) T A (Extr
 5611    8319  4 F 0950 1050  5611   -15. C    5611
(G  O E (U) UOp (Sht ) M
10        1   1   -15. N
FBAN
(NFr) O (NTo) Nc C (Vmn (Vmx Bctrl (Qini) T A (Extr
 5200    5836  1 F 1000 1100  5836  -100. C    5836
(G  O E (U) UOp (Sht ) M
10        1   1  -100. N
FBAN
(NFr) O (NTo) Nc C (Vmn (Vmx Bctrl (Qini) T A (Extr
 5841            D 1000 1100  5841  -150. C
(G  O E (U) UOp (Sht ) M
10        2   1  -150. S
FBAN
(NFr) O (NTo) Nc C (Vmn (Vmx Bctrl (Qini) T A (Extr
 5855            F 0950 1050  5855   48.8 C
(G  O E (U) UOp (Sht ) M
10        2   2   24.4 S
FBAN
(NFr) O (NTo) Nc C (Vmn (Vmx Bctrl (Qini) T A (Extr
 5924            F 1000 1100  5924  -150. C
(G  O E (U) UOp (Sht ) M
10        1   1  -150. S
FBAN
(NFr) O (NTo) Nc C (Vmn (Vmx Bctrl (Qini) T A (Extr
 5841    5924  1 F 1000 1100  5924  -100. C    5924
(G  O E (U) UOp (Sht ) M
10        1   1  -100. N
FBAN
(NFr) O (NTo) Nc C (Vmn (Vmx Bctrl (Qini) T A (Extr
 5926            D 1000 1100  5926  -200. C
(G  O E (U) UOp (Sht ) M
10        2   2  -100. S
FBAN
(NFr) O (NTo) Nc C (Vmn (Vmx Bctrl (Qini) T A (Extr
 5926    5380  5 F 1000 1100  5926  -100. C    5926
(G  O E (U) UOp (Sht ) M
10        1   1  -100. N
FBAN
(NFr) O (NTo) Nc C (Vmn (Vmx Bctrl (Qini) T A (Extr
47511    5926  1 F 1000 1100  5926   -75. C    5926
(G  O E (U) UOp (Sht ) M
10        1   1   -75. N
FBAN
(NFr) O (NTo) Nc C (Vmn (Vmx Bctrl (Qini) T A (Extr
 5959            F 0950 1050  5959   10.6 C
(G  O E (U) UOp (Sht ) M
10        1   1   -1.4 S
20        1   1    12. S
FBAN
(NFr) O (NTo) Nc C (Vmn (Vmx Bctrl (Qini) T A (Extr
 5990            F 0950 1050  5990        C
(G  O E (U) UOp (Sht ) M
10        1   0     7. S
FBAN
(NFr) O (NTo) Nc C (Vmn (Vmx Bctrl (Qini) T A (Extr
 6013            F 0950 1050  6013   21.3 C
(G  O E (U) UOp (Sht ) M
10        1   1   21.3 S
FBAN
(NFr) O (NTo) Nc C (Vmn (Vmx Bctrl (Qini) T A (Extr
 6033            F 0950 1050  6033   -9.5 C
(G  O E (U) UOp (Sht ) M
10        1   1   -9.5 S
FBAN
(NFr) O (NTo) Nc C (Vmn (Vmx Bctrl (Qini) T A (Extr
 6034            F 0950 1050  6034   -9.5 C
(G  O E (U) UOp (Sht ) M
10        1   1   -9.5 S
FBAN
(NFr) O (NTo) Nc C (Vmn (Vmx Bctrl (Qini) T A (Extr
 6041            F 0950 1050  6041   -12. C
(G  O E (U) UOp (Sht ) M
10        1   1   -12. S
FBAN
(NFr) O (NTo) Nc C (Vmn (Vmx Bctrl (Qini) T A (Extr
 6130            D 1000 1100  6130        C
(G  O E (U) UOp (Sht ) M
10        1   0  -150. S
FBAN
(NFr) O (NTo) Nc C (Vmn (Vmx Bctrl (Qini) T A (Extr
 5200    6130  2 F 1000 1100  6130  -100. C    6130
(G  O E (U) UOp (Sht ) M
10        1   1  -100. N
FBAN
(NFr) O (NTo) Nc C (Vmn (Vmx Bctrl (Qini) T A (Extr
 5200    6130  3 F 1000 1100  6130  -100. C    6130
(G  O E (U) UOp (Sht ) M
10        1   1  -100. N
FBAN
(NFr) O (NTo) Nc C (Vmn (Vmx Bctrl (Qini) T A (Extr
 6133            D 0950 1050  6133   21.3 C
(G  O E (U) UOp (Sht ) M
10        4   1   21.3 S
FBAN
(NFr) O (NTo) Nc C (Vmn (Vmx Bctrl (Qini) T A (Extr
 6140            F 1000 1100  6140  -600. C
(G  O E (U) UOp (Sht ) M
10        4   4  -150. S
FBAN
(NFr) O (NTo) Nc C (Vmn (Vmx Bctrl (Qini) T A (Extr
 6141            D 0950 1050  6141   50.5 C
(G  O E (U) UOp (Sht ) M
10        2   1   50.5 S
FBAN
(NFr) O (NTo) Nc C (Vmn (Vmx Bctrl (Qini) T A (Extr
 6142            D 0950 1100  6142    50. C
(G  O E (U) UOp (Sht ) M
10        1   1    50. S
FBAN
(NFr) O (NTo) Nc C (Vmn (Vmx Bctrl (Qini) T A (Extr
 6143            D 0950 1100  6143   21.3 C
(G  O E (U) UOp (Sht ) M
10        4   1   21.3 S
FBAN
...